22
Coordinates from ORCA-job orca
  Mn  0.23079423418041     -0.11064402655549      0.19457683219969
  N   0.63784003676317      2.14047557263365     -0.10768795398152
  H   -0.09275271605689      2.85484409046445     -0.04679922729111
  H   1.48761550310715      2.57652942349217      0.25921464863690
  H   0.80107271591103      1.94980340055839     -1.10384476916704
  N   2.47114603707707     -0.45213528490950      0.56878658176032
  H   3.09784115257615      0.24533926801986      0.97747442503955
  H   2.79942773810847     -1.35736852125306      0.91553918326725
  H   2.62657256414738     -0.45341926918154     -0.44661420510901
  N   -0.10210830607382     -2.39045851624254      0.27048209031672
  H   0.52516211283557     -3.03170537351902      0.76163296138536
  H   -1.04138052070090     -2.78132372015782      0.37842214622414
  H   0.13150609562424     -2.44245340395265     -0.72845742944858
  N   -1.97538272973417      0.18306954668090     -0.39691480681408
  H   -2.70228422585433     -0.50499098672258     -0.18470662671817
  H   -2.42550971074370      1.09920594217641     -0.32513413854037
  H   -1.70874258018824      0.05231966557223     -1.38027372472513
  N   -0.20569530101779      0.11137790010914      2.36688795759510
  H   0.35236437632464     -0.51531746460865      2.95213278257773
  H   -0.01664034807128      1.05476767683697      2.71716768324990
  H   -1.18185052182868     -0.08282048545936      2.60590533487925
  O   0.55888439361454     -0.28192543398195     -1.42747974533690
