71
11/26/2018 18:24, XYZ structure generated by mol3D Class, molSimplify
Mn 	12.176719	0.000000	9.504300
Mn 	9.504300	0.000000	12.176719
Mn 	9.504300	0.000000	6.831881
N 	6.979007	1.508903	7.915561
N 	6.151753	2.522821	7.713500
C 	6.629439	3.130716	6.629439
N 	7.915561	1.508903	12.029593
N 	7.713500	2.522821	12.856847
C 	6.629439	3.130716	12.379161
C 	12.379161	-3.130716	12.379161
N 	12.029593	-1.508903	11.093039
N 	6.979007	1.508903	11.093039
N 	6.151753	2.522821	11.295100
N 	12.856847	-2.522821	11.295100
N 	7.915561	1.508903	6.979007
N 	6.151753	-2.522821	7.713500
Mn 	6.831881	0.000000	9.504300
N 	7.713500	2.522821	6.151753
N 	12.029593	-1.508903	7.915561
N 	12.856847	-2.522821	7.713500
C 	12.379161	-3.130716	6.629439
N 	11.093039	1.508903	6.979007
N 	11.295100	2.522821	6.151753
C 	12.379161	3.130716	6.629439
C 	6.629439	-3.130716	6.629439
N 	6.979007	-1.508903	11.093039
N 	6.151753	-2.522821	11.295100
C 	6.629439	-3.130716	12.379161
N 	12.029593	1.508903	7.915561
Cl 	9.504300	0.000000	9.504300
N 	11.295100	-2.522821	6.151753
N 	12.856847	2.522821	7.713500
N 	7.915561	-1.508903	6.979007
N 	7.915561	-1.508903	12.029593
N 	7.713500	-2.522821	12.856847
N 	11.093039	-1.508903	6.979007
N 	12.029593	1.508903	11.093039
N 	12.856847	2.522821	11.295100
N 	11.093039	-1.508903	12.029593
C 	12.379161	3.130716	12.379161
N 	11.093039	1.508903	12.029593
N 	6.979007	-1.508903	7.915561
N 	11.295100	-2.522821	12.856847
N 	7.713500	-2.522821	6.151753
N 	11.295100	2.522821	12.856847
H 	12.829081	-4.009940	6.188844
H 	12.819779	4.009907	6.179498
H 	12.829066	4.009955	12.819745
H 	6.179540	-4.010000	12.819685
H 	6.179544	4.009997	6.188903
H 	6.179471	-4.009947	6.188908
H 	12.829061	-4.009967	12.819736
H 	6.188905	4.010001	12.829050
C 	3.600268	-0.544556	8.921465
O 	4.732045	0.018524	9.522888
H 	4.418600	0.393777	10.387042
H 	3.887095	-0.972323	7.939754
H 	3.194007	-1.362813	9.554601
H 	2.830870	0.237255	8.741735
C 	10.424460	-0.064535	3.682074
O 	9.504423	0.027881	4.732066
H 	8.609705	0.086503	4.306411
H 	11.446609	-0.138088	4.107271
H 	10.232244	-0.978927	3.080145
H 	10.377612	0.846698	3.047459
C 	10.430325	0.086095	15.320998
O 	9.504259	-0.009294	14.276698
H 	8.611644	-0.061845	14.707494
H 	11.450748	0.148777	14.889982
H 	10.247311	1.007019	15.915768
H 	10.380739	-0.819164	15.963927
