12

C         -1.39730       -0.07610       -0.01820
C         -0.75850        1.15950        0.00590
C          0.62670        1.18040        0.04270
N          1.39490        0.06950        0.06040
C          0.74640       -1.11550        0.03840
C         -0.63340       -1.23810       -0.00240
S         -2.97998        0.07399       -0.34612
H         -1.32510        2.08330       -0.00410
H          1.17180        2.11980        0.05940
H          1.38600       -1.99300        0.05540
H         -1.10080       -2.21620       -0.02100
H         -3.47191        1.42640       -0.30385
