40
5
C          3.61793        0.80379       -0.04746
C          3.67047       -0.59111       -0.01815
C          2.49495       -1.33100        0.00281
C          1.25360       -0.68275       -0.00253
C          1.20122        0.71710       -0.01365
C          2.39089        1.48854       -0.03658
C         -0.00074       -1.50008       -0.01331
C         -1.25347       -0.68022       -0.01084
C         -1.19824        0.71951        0.00356
O          0.00214        1.39771       -0.00806
C         -2.49608       -1.32607       -0.01012
C         -3.66998       -0.58398        0.02091
C         -3.61449        0.81073        0.05330
C         -2.38622        1.49321        0.03553
P          2.33050        3.32449       -0.11375
C          1.66980        3.71835        1.55496
C          4.05342        3.89337        0.10686
P         -2.32257        3.32899        0.11624
C         -1.66271        3.72570       -1.55218
C         -4.04491        3.90075       -0.10230
H          4.56306        1.33603       -0.08510
H          4.63258       -1.09712       -0.02230
H          2.54768       -2.41751        0.01493
H         -0.00430       -2.14698        0.87304
H          0.00158       -2.13258       -0.90999
H         -2.55101       -2.41242       -0.02532
H         -4.63302       -1.08812        0.03027
H         -4.55831        1.34470        0.09884
H          0.63851        3.37722        1.67048
H          1.67780        4.80136        1.71203
H          2.27090        3.25738        2.34447
H          4.66933        3.62543       -0.75693
H          4.51733        3.48068        1.00773
H          4.07636        4.98421        0.19519
H         -0.63135        3.38525       -1.66891
H         -1.67109        4.80898       -1.70740
H         -2.26413        3.26594       -2.34214
H         -4.66025        3.63385        0.76221
H         -4.51047        3.48872       -1.00263
H         -4.06618        4.99162       -0.19059
